Version 4
SHEET 1 1108 680
WIRE 528 -160 368 -160
WIRE 672 -160 528 -160
WIRE 672 -112 672 -160
WIRE 368 -48 368 -160
WIRE 672 16 672 -32
WIRE 848 16 672 16
WIRE 1040 16 912 16
WIRE 672 48 672 16
WIRE 96 96 0 96
WIRE 208 96 176 96
WIRE 224 96 208 96
WIRE 368 96 368 32
WIRE 368 96 288 96
WIRE 608 96 368 96
WIRE 1040 96 1040 16
WIRE 368 160 368 96
WIRE 0 192 0 96
WIRE 672 192 672 144
WIRE 1040 240 1040 176
WIRE 672 304 672 272
WIRE 816 304 672 304
WIRE 672 368 672 304
WIRE 816 368 816 304
WIRE 0 400 0 272
WIRE 368 496 368 240
WIRE 512 496 368 496
WIRE 672 496 672 448
WIRE 672 496 512 496
WIRE 816 496 816 432
WIRE 816 496 672 496
WIRE 512 528 512 496
FLAG 0 400 0
FLAG 528 -80 0
FLAG 512 528 0
FLAG 1040 240 0
FLAG 0 96 Vs
FLAG 208 96 Vin
FLAG 1040 16 Vout
SYMBOL voltage 0 176 R0
WINDOW 123 0 0 Left 0
WINDOW 39 0 0 Left 0
SYMATTR InstName V1
SYMATTR Value SINE(0 .5 1k)
SYMBOL res 192 80 R90
WINDOW 0 0 56 VBottom 2
WINDOW 3 32 56 VTop 2
SYMATTR InstName R1
SYMATTR Value 50
SYMBOL cap 288 80 R90
WINDOW 0 0 32 VBottom 2
WINDOW 3 32 32 VTop 2
SYMATTR InstName C1
SYMATTR Value 1µ
SYMBOL res 352 -64 R0
SYMATTR InstName R2
SYMATTR Value 47k
SYMBOL res 352 144 R0
SYMATTR InstName R3
SYMATTR Value 47k
SYMBOL voltage 528 -176 R0
WINDOW 123 0 0 Left 0
WINDOW 39 0 0 Left 0
SYMATTR InstName V2
SYMATTR Value 15
SYMBOL res 656 -128 R0
SYMATTR InstName R4
SYMATTR Value 3.3k
SYMBOL res 656 352 R0
SYMATTR InstName R5
SYMATTR Value 5.6k
SYMBOL cap 800 368 R0
SYMATTR InstName C2
SYMATTR Value 1µ
SYMBOL cap 912 0 R90
WINDOW 0 0 32 VBottom 2
WINDOW 3 32 32 VTop 2
SYMATTR InstName C3
SYMATTR Value 1µ
SYMBOL res 1024 80 R0
SYMATTR InstName R6
SYMATTR Value 1k
SYMBOL res 656 176 R0
SYMATTR InstName R7
SYMATTR Value 470
SYMBOL npn 608 48 R0
SYMATTR InstName Q1
SYMATTR Value 2N3904
TEXT 984 392 Left 2 !.tran .005
